/*--------------------------------*- C++ -*----------------------------------*\
| =========                 |                                                 |
| \\      /  F ield         | foam-extend: Open Source CFD                    |
|  \\    /   O peration     | Version:     3.1                                |
|   \\  /    A nd           | Web:         http://www.extend-project.de       |
|    \\/     M anipulation  |                                                 |
\*---------------------------------------------------------------------------*/
FoamFile
{
    version     2.0;
    format      ascii;
    class       dictionary;
    location    "system";
    object      cellSetDict;
}
// * * * * * * * * * * * * * * * * * * * * * * * * * * * * * * * * * * * * * //

name            c0;

action          new;

//topoSetSources  ( boxToCell { box ( 0.4 0.4 0.4) ( 0.6 0.6 0.6) ; } );
//topoSetSources  ( boxToCell { box ( 0.45 0.45 0.45) ( 0.55 0.55 0.55) ; } );
topoSetSources  ( boxToCell { box ( 0.475 0.475 0.475) ( 0.525 0.525 0.525) ; } );

// ************************************************************************* //
