/*--------------------------------*- C++ -*----------------------------------*\
| =========                 |                                                 |
| \\      /  F ield         | foam-extend: Open Source CFD                    |
|  \\    /   O peration     | Version:     3.1                                |
|   \\  /    A nd           | Web:         http://www.extend-project.de       |
|    \\/     M anipulation  |                                                 |
\*---------------------------------------------------------------------------*/
FoamFile
{
    version     2.0;
    format      ascii;
    class       dictionary;
    object      blockMeshDict;
}
// * * * * * * * * * * * * * * * * * * * * * * * * * * * * * * * * * * * * * //

convertToMeters 1;

vertices
(
    (0 0 0)
    (0.5 0 0)
    (0.5 0.5 0)
    (0 0.5 0)

    (0 0 0.5)
    (0.5 0 0.5)
    (0.5 0.5 0.5)
    (0 0.5 0.5)
);

blocks
(
    hex (0 1 2 3 4 5 6 7) (10 10 10) simpleGrading (1 1 1)
);

edges
(
);

patches
(
    patch emission
    (
	(0 4 5 1)
	(3 0 4 7)
	(0 3 2 1)
    )
    patch symmetry
    (
	(2 3 7 6)
	(1 2 6 5)
	(5 6 7 4)
    )
);

mergePatchPairs
(
);

// ************************************************************************* //
