/*--------------------------------*- C++ -*----------------------------------*\
| =========                 |                                                 |
| \\      /  F ield         | foam-extend: Open Source CFD                    |
|  \\    /   O peration     | Version:     3.1                                |
|   \\  /    A nd           | Web:         http://www.extend-project.de       |
|    \\/     M anipulation  |                                                 |
\*---------------------------------------------------------------------------*/
FoamFile
{
    version     2.0;
    format      ascii;
    class       dictionary;
    location    "system";
    object      cellSetDict;
}
// * * * * * * * * * * * * * * * * * * * * * * * * * * * * * * * * * * * * * //

name            c0;

action          new;

//topoSetSources  ( boxToCell { box ( 0.4 0.4 0.4) ( 0.6 0.6 0.6) ; } );
//topoSetSources  ( boxToCell { box ( 0.44 0.44 0.44) ( 0.56 0.56 0.56) ; } );
topoSetSources  ( boxToCell { box ( 0.46 0.46 0.46) ( 0.54 0.54 0.54) ; } );
//topoSetSources  ( boxToCell { box ( 0.47 0.47 0.47) ( 0.53 0.53 0.53) ; } );
// ************************************************************************* //
